TITLE  H2S Fe dominated 250mV        #TITLE OF MODEL

SOLUTION 1  PURE WATER               #INITIAL SOLUTION WITH CONDITIONS
            pH    6 charge   
          temp   25.0
           pe     -4.23      
PHASES                               #PHASES OF INTEREST WITH REACTION PATHWAYS

Mackinawite
    FeS + 2H+ = Fe+2 + H2S           #THE EXAMPLE HERE USES THE H2S PATHWAY WITH ASSOCIATED THERMODYNAMIC PROPERTIES
    log_k     4.850
    delta_h        -8.901 kcal
Pyrrhotite
    FeS + 2H+ = Fe+2 + H2S
    log_k     3.74177
    delta_h        -7.977 kcal
Greigite
    Fe3S4 + 8H+ = 2Fe+3 + Fe+2 + 4H2S
    log_k     -13.17851821
    delta_h        20.9195763 kcal
Pyrite
    FeS2 + 4H+ + Fe+2 = 2Fe+3 + 2H2S
    log_k     -28.93469201
    delta_h        20.7091683 kcal
END
INCREMENTAL_REACTIONS               #SET THE EXPERIMENT TO INCREMENTALLY ADD IRON AND SULPHUR
REACTION
Fe3S1 1                             #SET RATIO AND CONCENTRATION RANGE BELOW
10*1e-12 10*1e-11 10*1e-10 10*1e-9 10*1e-8 10*1e-7 10*1e-6 10*1e-5 10*1e-4  10*1e-3  10*1e-2 mol
USE solution 1                                #USE INITIAL SOLUTION AS STARTING POINT
EQUILIBRIUM_PHASES 1                          #SET PHASES OF INTEREST (ONES THAT YOU WANT TO PRECIPITATE) 
        Mackinawite     0.0     0.0   
        Greigite        0.0     0.0
        Pyrite          0.0     0.0             
        Pyrrhotite      0.0     0.0           #IN THIS EXAMPLE PYRRHOTITE IS INCLUDED. FOR MODELS WITHOUT PYRRHOTITE, REMOVE IT FROM THE EQUILIBRIUM PHASE BLOCK
        
#IN THIS EXAMPLE ALL MINERALS ARE EQUILIBRIUM. TO ALTER SI, CHANGE 0.0 ON LEFT COLUMN.

USER_GRAPH 1 Simulation 6
    -headings               Pyrite Greigite Mackinawite Pyrrhotite            #SET GRAPH WITH LOG SCALE 
    -axis_titles            "Fe and S added, Log moles" "Mineral, moles"
    -chart_title            "Iron dominant system with H2S as the oxidant"
    -axis_scale sy_axis     auto auto auto auto log
    -initial_solutions      false
    -connect_simulations    false
    -axis_scale y_axis      auto auto auto auto Log
    -axis_scale sy_axis	    auto auto auto auto Log
    -plot_concentration_vs  x
  -start
 5 PUT(GET(1) + RXN, 1)                                                   #PLOTS LINES SHOWING MINERAL PRECIPITATION
  20 PLOT_XY log10(GET(1)), EQUI("Pyrite") color = Green, line_w = 0, \
  	symbol = Plus, symbol_size = 5, y_axis = 2
  30 PLOT_XY log10(GET(1)), EQUI("Greigite") color = Blue, line_w = 0, \
  	symbol = Plus, symbol_size = 5, y_axis = 2
  40 PLOT_XY log10(GET(1)), EQUI("Mackinawite") color = Cyan, line_w = 0, \
  	symbol = Plus, symbol_size = 5, y_axis = 2
  50 PLOT_XY log10(GET(1)), EQUI("Pyrrhotite") color = Red, line_w = 0, \
  	symbol = Plus, symbol_size = 5, y_axis = 2
  -end
    -active                 true
SELECTED_OUTPUT                                                       #SELECTED OUTPUT INTO CSV FILE 
    -file                 H2S Fe dominated 250mV pH 6 unbuffered.csv
    -saturation_indices   Mackinawite  Greigite  Pyrite Pyrrhotite
    -reaction             
    -totals               Fe S
    -equilibrium_phases   Mackinawite  Greigite  Pyrite Pyrrhotite
END

#END EXPERIMENT